kpg193_v2_0_2027/network/m/KPG193_ver2_0_2027.m
function mpc = KPG193_ver2_0_2027
% Generated from KPG193_ver1_6 ACOPF hourly result.
% Bus voltage angle Va is in degrees, matching MATPOWER case format.
mpc.version = '2';

%-----  Power Flow Data  -----%%
% system MVA base
mpc.baseMVA = 100;

% bus data
%	bus_i	type	Pd	Qd	Gs	Bs	area	Vm	Va	baseKV	zone	Vmax	Vmin
mpc.bus = [
	1	1	64.3724560055	6.43724560055	0	0	1	0.999965171849	-20.7487118428	154	1	1.1	0.9	;
	2	1	77.8024069743	7.78024069743	0	0	1	1.00284771851	-22.756727677	345	1	1.05	0.95	;
	3	1	356.832077496	35.6832077496	0	0	1	1.00329285838	-22.6911255386	345	1	1.05	0.95	;
	4	1	82.7624383432	8.27624383432	0	0	1	1.00314352071	-23.2498250115	345	1	1.05	0.95	;
	5	1	80.0947868494	9.3456802269	0	0	1	1.01043085812	-12.6446996941	154	1	1.1	0.9	;
	6	1	79.5168864908	7.95168864908	0	0	1	1.00035985334	-24.6189148581	154	1	1.1	0.9	;
	7	1	536.538239048	53.6540696885	0	0	1	1.00405090116	-23.3427270127	345	1	1.05	0.95	;
	8	1	1224.74368086	122.474368086	0	0	1	1.0002638683	-24.51081068	345	1	1.05	0.95	;
	9	1	310.067473017	31.0067473017	0	0	1	1.00426264997	-23.9003005463	154	1	1.1	0.9	;
	10	2	681.206003498	68.1206003498	0	0	1	1.00100497417	-24.4404020216	154	1	1.1	0.9	;
	11	1	564.230261679	56.4230261679	0	0	1	1.00048206527	-24.69650644	345	1	1.05	0.95	;
	12	1	309.59991289	30.959991289	0	0	1	1.00410498468	-23.9199525187	154	1	1.1	0.9	;
	13	1	333.694433645	33.3694433645	0	0	1	1.00437121654	-23.9004845279	154	1	1.1	0.9	;
	14	1	357.862608285	35.7862608285	0	0	1	1.00392700844	-23.9544610125	345	1	1.05	0.95	;
	15	1	105.862735586	10.5862735586	0	0	1	1.00496988818	-23.8187416281	154	1	1.1	0.9	;
	16	1	456.060836084	45.6060836084	0	0	1	1.00533920878	-23.7787678985	345	1	1.05	0.95	;
	17	1	491.77410127	49.177410127	0	0	1	1.00486683497	-23.870769381	345	1	1.05	0.95	;
	18	1	513.432570019	51.3432570019	0	0	1	1.00460278702	-23.9091418708	345	1	1.05	0.95	;
	19	2	483.325082654	48.3362799908	0	0	1	1.00394279399	-23.9561509539	345	1	1.05	0.95	;
	20	2	247.133500755	24.9617727299	0	0	1	1.00383319086	-23.3367526351	154	1	1.1	0.9	;
	21	2	751.559832832	75.3456861498	0	0	1	1.00170459223	-24.4651427165	345	1	1.05	0.95	;
	22	1	608.434371652	60.8434371652	0	0	1	1.00496954342	-23.7706561166	345	1	1.05	0.95	;
	23	1	356.050570283	35.6050570283	0	0	1	1.00311265405	-24.0117700256	345	1	1.05	0.95	;
	24	1	582.505917667	58.2505917667	0	0	1	1.00271083264	-24.2730940828	154	1	1.1	0.9	;
	25	1	471.056711603	47.1056711603	0	0	1	1.0025020469	-24.2769144999	154	1	1.1	0.9	;
	26	1	555.98255093	55.598255093	0	0	1	1.00306472755	-24.2180794579	345	1	1.05	0.95	;
	27	2	-8.84242175036	3.16697154116	0	0	1	1.00362018964	-24.0472766455	345	1	1.05	0.95	;
	28	1	126.047572329	12.6047572329	0	0	1	1.00963977186	-19.0075804186	765	1	1.05	0.95	;
	29	1	612.99496434	61.2995507993	0	0	1	1.00363962719	-23.8278814971	345	1	1.05	0.95	;
	30	1	476.28592956	47.628592956	0	0	1	1.00358354443	-23.8310061668	154	1	1.1	0.9	;
	31	1	387.355770234	38.7357559366	0	0	1	1.00233736617	-24.0738759005	154	1	1.1	0.9	;
	32	1	159.70864489	15.970864489	0	0	1	1.00292988438	-24.0290302888	345	1	1.05	0.95	;
	33	1	460.548734272	46.0548734272	0	0	1	1.00268170353	-24.0435312145	154	1	1.1	0.9	;
	34	2	1029.96788676	102.996913508	0	0	1	1.00333200563	-24.1437198737	345	1	1.05	0.95	;
	35	1	627.465967323	62.7465967323	0	0	1	1.00095061811	-24.1100856025	154	1	1.1	0.9	;
	36	1	723.853681472	72.3853681472	0	0	1	1.00368196271	-23.8002149955	345	1	1.05	0.95	;
	37	1	887.430437155	88.7430437155	0	0	1	1.0025456005	-23.8679540914	345	1	1.05	0.95	;
	38	1	359.419456016	35.9419456016	0	0	1	1.00232858892	-22.7787217678	345	1	1.05	0.95	;
	39	1	693.42132361	69.342132361	0	0	1	0.994077192967	-25.1173331874	154	1	1.1	0.9	;
	40	2	1048.48601157	105.110863149	0	0	1	1.00311998548	-22.6085415681	345	1	1.05	0.95	;
	41	1	189.922604779	18.9922604779	0	0	1	0.997868449736	-19.8720421928	154	1	1.1	0.9	;
	42	2	1159.09984656	115.909984656	0	0	1	0.999543305609	-21.7068291414	154	1	1.1	0.9	;
	43	1	604.128213099	60.4134522987	0	0	1	0.996313546486	-24.6887992058	154	1	1.1	0.9	;
	44	1	186.38958356	18.6392553537	0	0	1	1.00051280582	-23.3547285278	345	1	1.05	0.95	;
	45	1	341.27558713	34.127558713	0	0	1	1.00126591681	-22.6827200977	345	1	1.05	0.95	;
	46	1	1073.60417699	107.360417699	0	0	1	1.00188680063	-22.8447735681	345	1	1.05	0.95	;
	47	1	2719.27287168	271.927419723	0	0	1	0.995856242711	-23.5624364667	345	1	1.05	0.95	;
	48	2	189.681480114	18.9681480114	0	0	1	1.00071435845	-22.3909851482	154	1	1.1	0.9	;
	49	1	388.074974534	38.8074974534	0	0	1	0.996947247293	-21.8470306064	154	1	1.1	0.9	;
	50	1	461.489189755	46.1489189755	0	0	1	1.00298822416	-21.1393303332	765	1	1.05	0.95	;
	51	1	1848.84180178	184.884180178	0	0	1	0.999475874805	-21.7656734102	345	1	1.05	0.95	;
	52	2	425.47278652	42.547278652	0	0	2	0.998686487048	-19.6067176724	154	1	1.1	0.9	;
	53	2	883.024923228	88.3024923228	0	0	2	1.00884044269	-14.7779604187	765	1	1.05	0.95	;
	54	1	379.399267505	37.9399267505	0	0	2	1.00138076502	-20.3076158741	345	1	1.05	0.95	;
	55	1	1104.36446368	110.436524043	0	0	2	1.00061814662	-18.2688800605	345	1	1.05	0.95	;
	56	1	153.435592714	15.3435592714	0	0	2	0.997988213388	-20.299093283	154	1	1.1	0.9	;
	57	1	1738.88566045	173.888625216	0	0	2	0.999883794623	-18.5352734601	345	1	1.05	0.95	;
	58	1	1301.68060901	130.168226565	0	0	2	1.01043201211	-13.2129489713	345	1	1.05	0.95	;
	59	2	118.187960228	11.8196747236	0	0	2	1.01390405025	-11.5139292299	345	1	1.05	0.95	;
	60	1	172.130722473	17.2130722473	0	0	2	1.00449087348	-16.6908310204	345	1	1.05	0.95	;
	61	1	824.066435432	82.4066547422	0	0	2	1.00101250769	-19.8442388987	154	1	1.1	0.9	;
	62	1	969.927738193	96.9928261965	0	0	2	1.0027265146	-19.4272077745	765	1	1.05	0.95	;
	63	1	134.378152359	13.4378152359	0	0	2	1.00750325551	-15.6143972571	765	1	1.05	0.95	;
	64	1	489.632456937	48.9632456937	0	0	2	0.999669923037	-17.5816085049	345	1	1.05	0.95	;
	65	1	83.6629599549	11.6442565296	0	0	3	0.999478326131	-5.87634016567	154	1	1.1	0.9	;
	66	1	28.5644404357	3.36371679605	0	0	3	0.999976501141	-14.6009060362	154	1	1.1	0.9	;
	67	1	24.1670282047	2.66506500729	0	0	3	0.997222032146	-11.6790217848	154	1	1.1	0.9	;
	68	1	36.1938267376	4.2077016266	0	0	3	1.00338554616	-3.9440009458	345	1	1.05	0.95	;
	69	1	39.3712189065	4.37831811389	0	0	3	0.997011339548	-9.53560887212	154	1	1.1	0.9	;
	70	1	241.367291957	24.1485035787	0	0	3	0.99984842884	-14.3888268392	154	1	1.1	0.9	;
	71	2	272.340539721	27.2340539721	0	0	3	1.00683009697	-1.67234967019	345	1	1.05	0.95	;
	72	1	95.0823150987	9.50823150987	0	0	3	0.995835917126	-13.7560396046	154	1	1.1	0.9	;
	73	2	301.021943397	30.8777040326	0	0	3	1.00871333883	0.733134650447	345	1	1.05	0.95	;
	74	1	63.393648919	8.7811644265	0	0	3	0.994294727244	-14.2496973705	154	1	1.1	0.9	;
	75	2	168.982657572	18.2236478919	0	0	3	1.01252922885	2.61321321881	345	1	1.05	0.95	;
	76	1	74.0534533556	8.11252850124	0	0	3	0.999257501501	-4.4305683857	154	1	1.1	0.9	;
	77	1	334.555345705	33.4555345705	0	0	3	0.990658356272	-15.65551039	154	1	1.1	0.9	;
	78	1	-59.488553252	8.09711869504	0	0	3	1.00808377745	-9.99123577121	154	1	1.1	0.9	;
	79	1	147.597119246	14.7597119246	0	0	3	0.998362632769	-6.90926176253	154	1	1.1	0.9	;
	80	1	-597.129357305	3.91644658911	0	0	3	1.01569966555	-4.09515014451	765	1	1.05	0.95	;
	81	1	213.770052269	21.3771982124	0	0	3	0.998049686806	-9.27664258197	345	1	1.05	0.95	;
	82	2	29.5969333113	9.29494011414	0	0	3	1.02464671948	-0.250953047622	765	1	1.05	0.95	;
	83	1	244.434193312	24.4435556368	0	0	3	0.993339352608	-9.37944795872	154	1	1.1	0.9	;
	84	1	345.935002787	35.6559565051	0	0	3	0.993623277244	-18.3125813962	345	1	1.05	0.95	;
	85	1	230.21592212	23.021592212	0	0	3	1.00568236449	-6.97274311568	154	1	1.1	0.9	;
	86	1	225.442997875	22.5443455254	0	0	3	1.00671997851	-7.26552168901	345	1	1.05	0.95	;
	87	1	29.1685189296	5.15749029735	0	0	3	1.00589001725	-7.8956552806	345	1	1.05	0.95	;
	88	1	-298.629171205	1.45020549762	0	0	3	1.01143206008	-4.59813018638	154	1	1.1	0.9	;
	89	1	78.2267642713	7.82281167282	0	0	3	0.999471110684	-9.80547763848	154	1	1.1	0.9	;
	90	1	151.623956927	15.6668118291	0	0	3	1.00574628177	-8.02083545044	154	1	1.1	0.9	;
	91	1	52.4450304293	5.24450304293	0	0	3	0.998504531537	-18.334915396	154	1	1.1	0.9	;
	92	1	-14.5918279595	2.66173222097	0	0	3	1.00727707553	-7.50994590689	345	1	1.05	0.95	;
	93	1	103.773025155	10.377548288	0	0	3	0.995749868696	-11.8417380747	154	1	1.1	0.9	;
	94	1	-66.4277889706	3.83597469651	0	0	3	1.00939523334	-4.75487808489	154	1	1.1	0.9	;
	95	1	58.9463195725	5.89463195725	0	0	3	1.00462576876	-8.25932511173	345	1	1.05	0.95	;
	96	1	152.504006184	15.2504006184	0	0	4	1.00162630182	-16.2490425595	154	1	1.1	0.9	;
	97	1	47.4525026616	4.74525026616	0	0	4	1.00775360561	-14.1312808163	345	1	1.05	0.95	;
	98	1	242.162992327	24.4646332584	0	0	4	0.995069078857	-17.6583385307	154	1	1.1	0.9	;
	99	1	784.932152826	78.4932152826	0	0	4	0.992734667935	-18.2107085157	154	1	1.1	0.9	;
	100	2	183.947078268	18.3947078268	0	0	4	1.01246307632	-12.5214117032	345	1	1.05	0.95	;
	101	1	286.878416954	28.6878416954	0	0	4	0.993125981473	-17.8230689431	154	1	1.1	0.9	;
	102	1	84.4559926732	8.44559926732	0	0	4	1.00077309198	-15.5112108032	345	1	1.05	0.95	;
	103	1	88.5383441182	8.85383441182	0	0	4	1.00558853437	-14.2819840026	154	1	1.1	0.9	;
	104	1	187.039571389	18.7039571389	0	0	4	1.00332332735	-15.0878545263	345	1	1.05	0.95	;
	105	1	125.385449541	12.5385449541	0	0	4	0.998296976524	-14.9836062139	154	1	1.1	0.9	;
	106	2	148.391375579	14.8391375579	0	0	4	1.00277320006	-12.3466141762	154	1	1.1	0.9	;
	107	1	5.59170847595	2.81757635808	0	0	4	0.999490735454	-13.5907515664	345	1	1.05	0.95	;
	108	1	770.194308414	77.0194308414	0	0	4	1.00070755664	-13.1760406349	345	1	1.05	0.95	;
	109	1	403.326109613	40.3326109613	0	0	4	1.00105682709	-13.2874690824	345	1	1.05	0.95	;
	110	1	236.030560277	23.6030560277	0	0	4	0.993138048848	-14.5239490871	154	1	1.1	0.9	;
	111	1	149.469161259	14.9469161259	0	0	4	1.00165221638	-11.7342908931	345	1	1.05	0.95	;
	112	1	27.6330252178	2.76330252178	0	0	4	0.992208063166	-15.1130045199	154	1	1.1	0.9	;
	113	1	587.381278248	58.7381278248	0	0	4	0.992692225159	-14.1710939156	154	1	1.1	0.9	;
	114	1	64.9053581368	6.4972911853	0	0	4	1.00009585405	-11.7273415205	154	1	1.1	0.9	;
	115	1	28.3321481697	2.83321481697	0	0	4	0.991694602506	-15.326288835	154	1	1.1	0.9	;
	116	1	39.9956530993	3.99956530993	0	0	4	0.998216642385	-12.1098109154	154	1	1.1	0.9	;
	117	1	230.945341248	24.1499378547	0	0	4	0.999538239595	-11.1601954656	154	1	1.1	0.9	;
	118	1	87.7084041066	8.77084041066	0	0	4	1.00984492658	-6.55300411015	154	1	1.1	0.9	;
	119	1	88.3594407028	8.83594407028	0	0	4	1.00620003102	-9.57194096635	345	1	1.05	0.95	;
	120	1	36.2294659783	3.62294659783	0	0	4	0.999909840322	-11.4465503235	154	1	1.1	0.9	;
	121	1	84.3124957819	8.43124957819	0	0	4	1.00211478174	-9.18442273478	154	1	1.1	0.9	;
	122	1	69.8191018928	6.98191018928	0	0	4	1.00210446599	-10.257705225	154	1	1.1	0.9	;
	123	1	56.7859672912	5.67859672913	0	0	4	1.00058431308	-11.205930321	154	1	1.1	0.9	;
	124	2	110.356523313	11.0356523313	0	0	4	1.02000038548	-3.51652822333	345	1	1.05	0.95	;
	125	1	23.5033495928	2.35033495928	0	0	4	1.00021491163	-11.3776631791	154	1	1.1	0.9	;
	126	1	391.552227789	39.1552227789	0	0	4	1.00455554832	-9.37999587653	345	1	1.05	0.95	;
	127	1	308.540904447	30.8540904447	0	0	4	1.00220076357	-10.2227376245	154	1	1.1	0.9	;
	128	1	466.174907173	46.6174907173	0	0	4	0.993629828283	-12.2692681169	154	1	1.1	0.9	;
	129	1	55.1770144601	5.51770144601	0	0	4	0.997940122487	-14.168767809	154	1	1.1	0.9	;
	130	1	64.4882500517	6.9800532522	0	0	4	1.00308049247	-10.3480475897	345	1	1.05	0.95	;
	131	1	178.875076365	17.8875076365	0	0	4	0.998190880377	-11.9617356662	154	1	1.1	0.9	;
	132	1	96.0208997871	9.60208997871	0	0	4	0.998604726917	-13.9732350235	154	1	1.1	0.9	;
	133	1	279.348941692	28.7395657076	0	0	4	0.999139624632	-11.307944437	345	1	1.05	0.95	;
	134	1	654.775830058	65.4775830058	0	0	4	0.999699470825	-10.7055425409	345	1	1.05	0.95	;
	135	1	138.858199432	13.8959936731	0	0	4	0.998113289169	-13.9539108559	154	1	1.1	0.9	;
	136	1	159.797265133	15.9797265133	0	0	4	1.00127584576	-11.9330031781	345	1	1.05	0.95	;
	137	2	1898.43119525	190.172411318	0	0	4	0.996400336725	-11.7147680237	345	1	1.05	0.95	;
	138	1	41.0949875646	4.10949875646	0	0	4	0.998817930101	-12.6227044372	154	1	1.1	0.9	;
	139	1	43.599358226	4.3599358226	0	0	4	0.999001360645	-14.0971199973	154	1	1.1	0.9	;
	140	1	46.313251931	5.04181281784	0	0	4	0.998322903473	-13.1308395934	154	1	1.1	0.9	;
	141	1	52.4067137799	5.24067137799	0	0	4	0.998600197385	-13.2597861121	154	1	1.1	0.9	;
	142	1	71.2095874626	7.12095874626	0	0	4	0.998617729034	-12.4820390679	154	1	1.1	0.9	;
	143	1	102.371885339	10.238499731	0	0	4	0.997319675662	-13.8934859334	154	1	1.1	0.9	;
	144	1	47.0523513015	4.70980909769	0	0	4	0.997462106127	-14.2680133499	154	1	1.1	0.9	;
	145	1	132.763075468	14.6300797015	0	0	4	0.991186120407	-15.5716636145	154	1	1.1	0.9	;
	146	1	36.2298367406	4.27895812251	0	0	5	0.998101243683	-9.75357558847	154	1	1.1	0.9	;
	147	1	58.0034389848	5.80034389848	0	0	5	0.997791635054	-15.6272959647	154	1	1.1	0.9	;
	148	1	314.037299618	31.4037299618	0	0	5	0.984504856997	-13.1100987206	154	1	1.1	0.9	;
	149	1	1242.3643508	124.23643508	0	0	5	0.989943172199	-11.6962363707	345	1	1.05	0.95	;
	150	1	675.054177646	69.0876696215	0	0	5	0.998592045569	-8.15820744121	345	1	1.05	0.95	;
	151	1	566.229860138	58.3899729094	0	0	5	0.998504665253	-7.81486667514	345	1	1.05	0.95	;
	152	1	261.686501817	26.1686501817	0	0	5	0.994440444849	-10.2046359206	345	1	1.05	0.95	;
	153	1	205.059898529	20.5059898529	0	0	5	0.991900019849	-9.030835051	154	1	1.1	0.9	;
	154	1	140.356600288	14.0356796861	0	0	5	0.990066130516	-11.4318272236	154	1	1.1	0.9	;
	155	1	393.293453892	39.3297125044	0	0	5	0.990356337314	-11.3746262969	154	1	1.1	0.9	;
	156	1	423.709181317	42.3709181317	0	0	5	0.992715893846	-9.62104139253	154	1	1.1	0.9	;
	157	1	199.467538512	19.9467538512	0	0	5	0.990648520519	-11.5391286023	154	1	1.1	0.9	;
	158	1	358.685716022	52.1834170964	0	0	5	0.995946982194	-7.35054634691	154	1	1.1	0.9	;
	159	1	362.940153284	36.2940153284	0	0	5	0.995160029719	-8.4472336616	345	1	1.05	0.95	;
	160	1	1035.82091198	103.582091198	0	0	5	0.993063797552	-12.1338805225	154	1	1.1	0.9	;
	161	1	170.800310204	17.0800310204	0	0	5	0.999446087366	-8.88339419	345	1	1.05	0.95	;
	162	1	61.6300786702	6.16300786702	0	0	5	0.998129659602	-9.59330521568	154	1	1.1	0.9	;
	163	1	64.8226939581	6.48226939581	0	0	5	0.999902165629	-6.83867623154	345	1	1.05	0.95	;
	164	1	52.0439668756	5.45150302498	0	0	5	0.998377200783	-9.42357572657	154	1	1.1	0.9	;
	165	1	1589.55446405	158.955552972	0	0	5	0.998083754224	-5.89439065141	345	1	1.05	0.95	;
	166	2	509.172579205	51.0567135958	0	0	5	1.00769853085	-2.87918777935	345	1	1.05	0.95	;
	167	2	2121.4678375	212.146919671	0	0	5	1.00726427452	-2.94397020482	345	1	1.05	0.95	;
	168	1	135.101041334	13.5101041334	0	0	5	1.00628818869	-5.04414547707	765	1	1.05	0.95	;
	169	1	38.0737925129	3.80737925129	0	0	5	0.999196154942	-9.13182011733	154	1	1.1	0.9	;
	170	1	151.311029895	16.7303517536	0	0	5	1.00000237554	-5.67714043709	154	1	1.1	0.9	;
	171	1	27.7004964881	4.68344474851	0	0	5	1.00235464991	-7.40458697907	345	1	1.05	0.95	;
	172	1	478.749524139	49.3934176397	0	0	5	1.00125080214	-3.86306658662	154	1	1.1	0.9	;
	173	1	48.4801448909	5.12552049259	0	0	5	1.00164455296	-7.3202239655	345	1	1.05	0.95	;
	174	1	371.670875539	37.1670875539	0	0	5	0.998701583144	-6.34187074259	345	1	1.05	0.95	;
	175	2	168.157535832	16.8515307557	0	0	5	1.01608441697	0.343098575077	765	1	1.05	0.95	;
	176	1	488.321445503	48.8321445503	0	0	5	0.997562742794	-4.96959282276	345	1	1.05	0.95	;
	177	1	624.367963097	62.4369386169	0	0	5	0.997280438646	-4.68904757777	345	1	1.05	0.95	;
	178	1	705.759963424	70.57606012	0	0	5	0.992037049699	-6.11529394771	154	1	1.1	0.9	;
	179	1	376.702967153	37.6702967153	0	0	5	1.01037222963	-1.21756923437	345	1	1.05	0.95	;
	180	1	352.32865864	35.232865864	0	0	5	0.995616575323	-6.61572421836	154	1	1.1	0.9	;
	181	1	319.408628692	31.9408628692	0	0	5	1.00834895622	-1.78126341262	345	1	1.05	0.95	;
	182	1	576.636204866	57.6638897255	0	0	5	0.993075628609	-5.95258952228	345	1	1.05	0.95	;
	183	1	260.85364808	26.0854552433	0	0	5	0.99685610798	-4.38571004723	345	1	1.05	0.95	;
	184	1	515.398792834	51.540099261	0	0	5	1.01016061797	-1.27283210177	345	1	1.05	0.95	;
	185	1	294.543756205	29.4543756205	0	0	5	1.00797480339	-1.87000836081	154	1	1.1	0.9	;
	186	2	441.06111898	44.1067039226	0	0	5	1.00853158323	-1.58876370629	345	1	1.05	0.95	;
	187	1	60.958671197	6.0958671197	0	0	5	1.00850587749	-1.59697114766	345	1	1.05	0.95	;
	188	1	55.6650667077	5.56736065509	0	0	5	1.00031655319	-9.09550566853	154	1	1.1	0.9	;
	189	1	101.308754766	10.1626701811	0	0	5	1.00061488165	0.0980548139677	154	1	1.1	0.9	;
	190	3	181.847374086	18.235711054	0	0	5	1	0	345	1	1.05	0.95	;
	191	1	253.80006939	25.3802764593	0	0	5	0.99993730511	0.292913584642	154	1	1.1	0.9	;
	192	2	126.774743659	12.6776073688	0	0	5	1.00286595192	1.29792453225	154	1	1.1	0.9	;
	193	2	36.1616323441	3.61616323441	0	0	5	1.00736041484	-7.34132345392	345	1	1.05	0.95	;
];

% generator data
%	bus	Pg	Qg	Qmax	Qmin	Vg	mBase	status	Pmax	Pmin	Pc1	Pc2	Qc1min	Qc1max	Qc2min	Qc2max	ramp_agc	ramp_10	ramp_30	ramp_q	apf
mpc.gen = [
	3	0	0	362.5	-362.5	1.00329285838	100	0	725	377	0	0	0	0	0	0	0	120.8333333	362.5	362.5	0	;
	3	0	0	362.5	-362.5	1.00329285838	100	0	725	377	0	0	0	0	0	0	0	120.8333333	362.5	362.5	0	;
	3	0	0	437.1	-437.1	1.00329285838	100	0	874.2	454.584	0	0	0	0	0	0	0	145.7	437.1	437.1	0	;
	4	0	0	262.15	-262.15	1.00314352071	100	0	524.3	272.636	0	0	0	0	0	0	0	87.38333333	262.15	262.15	0	;
	4	0	0	429.2	-429.2	1.00314352071	100	0	858.4	446.368	0	0	0	0	0	0	0	143.0666667	429.2	429.2	0	;
	4	0	0	429.2	-429.2	1.00314352071	100	0	858.4	446.368	0	0	0	0	0	0	0	143.0666667	429.2	429.2	0	;
	8	0	0	423.8	-423.8	1.0002638683	100	0	847.6	440.752	0	0	0	0	0	0	0	141.2666667	423.8	423.8	0	;
	8	0	0	423.8	-423.8	1.0002638683	100	0	847.6	440.752	0	0	0	0	0	0	0	141.2666667	423.8	423.8	0	;
	8	0	0	257.75	-257.75	1.0002638683	100	0	515.5	268.06	0	0	0	0	0	0	0	85.91666667	257.75	257.75	0	;
	9	0	0	57.705	-57.705	1.00426264997	100	0	115.41	60.0132	0	0	0	0	0	0	0	19.235	57.705	57.705	0	;
	9	0	0	18.5	-18.5	1.00426264997	100	0	37	19.24	0	0	0	0	0	0	0	6.166666667	18.5	18.5	0	;
	10	0	0	300	-300	1.00100497417	100	0	600	312	0	0	0	0	0	0	0	100	300	300	0	;
	10	271.410893565	3.50164279701	150	-150	1.00100497417	100	1	300	156	0	0	0	0	0	0	0	50	150	150	0	;
	19	0	0	184.5865	-184.5865	1.00394279399	100	0	369.173	191.96996	0	0	0	0	0	0	0	61.52883333	184.5865	184.5865	0	;
	19	335.738446236	0.652591164213	184.5865	-184.5865	1.00394279399	100	1	369.173	191.96996	0	0	0	0	0	0	0	61.52883333	184.5865	184.5865	0	;
	20	326.293221334	11.5208484091	181.9055	-181.9055	1.00383319086	100	1	363.811	189.18172	0	0	0	0	0	0	0	60.63516667	181.9055	181.9055	0	;
	21	416.814519228	6.77127841172	225	-225	1.00170459223	100	1	450	234	0	0	0	0	0	0	0	75	225	225	0	;
	21	0	0	225	-225	1.00170459223	100	0	450	234	0	0	0	0	0	0	0	75	225	225	0	;
	21	0	0	225	-225	1.00170459223	100	0	450	234	0	0	0	0	0	0	0	75	225	225	0	;
	21	0	0	225	-225	1.00170459223	100	0	450	234	0	0	0	0	0	0	0	75	225	225	0	;
	24	0	0	10.5	-10.5	1.00271083264	100	0	21	10.92	0	0	0	0	0	0	0	3.5	10.5	10.5	0	;
	26	0	0	225	-225	1.00306472755	100	0	450	234	0	0	0	0	0	0	0	75	225	225	0	;
	27	0	0	63.5	-63.5	1.00362018964	100	0	127	66.04	0	0	0	0	0	0	0	21.16666667	63.5	63.5	0	;
	27	161.980152895	-0.656523188396	93.65	-93.65	1.00362018964	100	1	187.3	97.396	0	0	0	0	0	0	0	31.21666667	93.65	93.65	0	;
	34	197.425013591	-0.543586585075	112.5	-112.5	1.00333200563	100	1	225	117	0	0	0	0	0	0	0	37.5	112.5	112.5	0	;
	34	197.425013591	-0.543586585075	112.5	-112.5	1.00333200563	100	1	225	117	0	0	0	0	0	0	0	37.5	112.5	112.5	0	;
	34	197.425013591	-0.543586585075	112.5	-112.5	1.00333200563	100	1	225	117	0	0	0	0	0	0	0	37.5	112.5	112.5	0	;
	34	197.425013591	-0.543586585075	112.5	-112.5	1.00333200563	100	1	225	117	0	0	0	0	0	0	0	37.5	112.5	112.5	0	;
	34	0	0	112.5	-112.5	1.00333200563	100	0	225	117	0	0	0	0	0	0	0	37.5	112.5	112.5	0	;
	34	197.425013591	-0.543586585075	112.5	-112.5	1.00333200563	100	1	225	117	0	0	0	0	0	0	0	37.5	112.5	112.5	0	;
	34	0	0	112.5	-112.5	1.00333200563	100	0	225	117	0	0	0	0	0	0	0	37.5	112.5	112.5	0	;
	34	0	0	112.5	-112.5	1.00333200563	100	0	225	117	0	0	0	0	0	0	0	37.5	112.5	112.5	0	;
	34	0	0	251.7695	-251.7695	1.00333200563	100	0	503.539	261.84028	0	0	0	0	0	0	0	83.92316667	251.7695	251.7695	0	;
	34	0	0	254.454	-254.454	1.00333200563	100	0	508.908	264.63216	0	0	0	0	0	0	0	84.818	254.454	254.454	0	;
	34	0	0	225	-225	1.00333200563	100	0	450	234	0	0	0	0	0	0	0	75	225	225	0	;
	34	414.578540889	2.88933678753	225	-225	1.00333200563	100	1	450	234	0	0	0	0	0	0	0	75	225	225	0	;
	34	0	0	225	-225	1.00333200563	100	0	450	234	0	0	0	0	0	0	0	75	225	225	0	;
	34	0	0	287.3	-287.3	1.00333200563	100	0	574.6	298.792	0	0	0	0	0	0	0	95.76666667	287.3	287.3	0	;
	34	538.486901669	8.22488308027	287.3	-287.3	1.00333200563	100	1	574.6	298.792	0	0	0	0	0	0	0	95.76666667	287.3	287.3	0	;
	34	0	0	187.8	-187.8	1.00333200563	100	0	375.6	195.312	0	0	0	0	0	0	0	62.6	187.8	187.8	0	;
	34	0	0	187.8	-187.8	1.00333200563	100	0	375.6	195.312	0	0	0	0	0	0	0	62.6	187.8	187.8	0	;
	34	0	0	187.8	-187.8	1.00333200563	100	0	375.6	195.312	0	0	0	0	0	0	0	62.6	187.8	187.8	0	;
	36	0	0	0	0	1.00368196271	100	0	0	0	0	0	0	0	0	0	0	0	0	0	0	;
	36	0	0	174.137	-174.137	1.00368196271	100	0	348.274	181.10248	0	0	0	0	0	0	0	58.04566667	174.137	174.137	0	;
	36	0	0	206.3	-206.3	1.00368196271	100	0	412.6	214.552	0	0	0	0	0	0	0	68.76666667	206.3	206.3	0	;
	36	0	0	73.157	-73.157	1.00368196271	100	0	146.314	76.08328	0	0	0	0	0	0	0	24.38566667	73.157	73.157	0	;
	37	0	0	12	-12	1.0025456005	100	0	24	12.48	0	0	0	0	0	0	0	4	12	12	0	;
	39	0	0	240.845	-240.845	0.994077192967	100	0	481.69	250.4788	0	0	0	0	0	0	0	80.28166667	240.845	240.845	0	;
	39	0	0	240.845	-240.845	0.994077192967	100	0	481.69	250.4788	0	0	0	0	0	0	0	80.28166667	240.845	240.845	0	;
	40	0	0	30	-30	1.00311998548	100	0	60	31.2	0	0	0	0	0	0	0	10	30	30	0	;
	40	0	0	375.6	-375.6	1.00311998548	100	0	751.2	390.624	0	0	0	0	0	0	0	125.2	375.6	375.6	0	;
	40	764.715990882	48.9937579748	400	-400	1.00311998548	100	1	800	320	0	0	0	0	0	0	0	88	264	400	0	;
	40	764.715990882	48.9937579748	400	-400	1.00311998548	100	1	800	320	0	0	0	0	0	0	0	88	264	400	0	;
	40	834.65969883	60.1117291816	435	-435	1.00311998548	100	1	870	348	0	0	0	0	0	0	0	95.7	287.1	435	0	;
	40	834.65969883	60.1117291816	435	-435	1.00311998548	100	1	870	348	0	0	0	0	0	0	0	95.7	287.1	435	0	;
	40	832.37544132	60.1117291816	435	-435	1.00311998548	100	1	870	348	0	0	0	0	0	0	0	95.7	287.1	435	0	;
	40	834.65969883	60.1117291816	435	-435	1.00311998548	100	1	870	348	0	0	0	0	0	0	0	95.7	287.1	435	0	;
	43	0	0	72.394	-72.394	0.996313546486	100	0	144.788	75.28976	0	0	0	0	0	0	0	24.13133333	72.394	72.394	0	;
	43	0	0	19.45	-19.45	0.996313546486	100	0	38.9	20.228	0	0	0	0	0	0	0	6.483333333	19.45	19.45	0	;
	45	0	0	255.9	-255.9	1.00126591681	100	0	511.8	266.136	0	0	0	0	0	0	0	85.3	255.9	255.9	0	;
	47	0	0	0	0	0.995856242711	100	0	0	0	0	0	0	0	0	0	0	0	0	0	0	;
	47	0	0	0	0	0.995856242711	100	0	0	0	0	0	0	0	0	0	0	0	0	0	0	;
	47	0	0	0	0	0.995856242711	100	0	0	0	0	0	0	0	0	0	0	0	0	0	0	;
	47	0	0	0	0	0.995856242711	100	0	0	0	0	0	0	0	0	0	0	0	0	0	0	;
	47	0	0	434.25	-434.25	0.995856242711	100	0	868.5	451.62	0	0	0	0	0	0	0	144.75	434.25	434.25	0	;
	47	0	0	431.65	-431.65	0.995856242711	100	0	863.3	448.916	0	0	0	0	0	0	0	143.8833333	431.65	431.65	0	;
	48	0	0	218.05	-218.05	1.00071435845	100	0	436.1	226.772	0	0	0	0	0	0	0	72.68333333	218.05	218.05	0	;
	48	0	0	189.19	-189.19	1.00071435845	100	0	378.38	196.7576	0	0	0	0	0	0	0	63.06333333	189.19	189.19	0	;
	48	340.981873385	13.0221090338	189.19	-189.19	1.00071435845	100	1	378.38	196.7576	0	0	0	0	0	0	0	63.06333333	189.19	189.19	0	;
	49	0	0	384.915	-384.915	0.996947247293	100	0	769.83	400.3116	0	0	0	0	0	0	0	128.305	384.915	384.915	0	;
	53	0	0	250.375	-250.375	1.00884044269	100	0	500.75	260.39	0	0	0	0	0	0	0	83.45833333	250.375	250.375	0	;
	53	0	0	266.5	-266.5	1.00884044269	100	0	533	277.16	0	0	0	0	0	0	0	88.83333333	266.5	266.5	0	;
	53	0	0	191	-191	1.00884044269	100	0	382	198.64	0	0	0	0	0	0	0	63.66666667	191	191	0	;
	53	0	0	423	-423	1.00884044269	100	0	846	439.92	0	0	0	0	0	0	0	141	423	423	0	;
	53	461.403953598	16.7386137139	250	-250	1.00884044269	100	1	500	200	0	0	0	0	0	0	0	55	165	250	0	;
	53	457.959381432	16.7386137139	250	-250	1.00884044269	100	1	500	200	0	0	0	0	0	0	0	55	165	250	0	;
	53	457.959381432	16.7386137139	250	-250	1.00884044269	100	1	500	200	0	0	0	0	0	0	0	55	165	250	0	;
	53	457.959381432	16.7386137139	250	-250	1.00884044269	100	1	500	200	0	0	0	0	0	0	0	55	165	250	0	;
	53	457.959381432	16.7386137139	250	-250	1.00884044269	100	1	500	200	0	0	0	0	0	0	0	55	165	250	0	;
	53	457.959381432	16.7386137139	250	-250	1.00884044269	100	1	500	200	0	0	0	0	0	0	0	55	165	250	0	;
	53	457.959381432	16.7386137139	250	-250	1.00884044269	100	1	500	200	0	0	0	0	0	0	0	55	165	250	0	;
	53	457.959381432	16.7386137139	250	-250	1.00884044269	100	1	500	200	0	0	0	0	0	0	0	55	165	250	0	;
	53	976.974820965	92.4943411976	510	-510	1.00884044269	100	1	1020	408	0	0	0	0	0	0	0	112.2	336.6	510	0	;
	53	975.57955411	92.4943411976	510	-510	1.00884044269	100	1	1020	408	0	0	0	0	0	0	0	112.2	336.6	510	0	;
	57	0	0	50.85	-50.85	0.999883794623	100	0	101.7	52.884	0	0	0	0	0	0	0	16.95	50.85	50.85	0	;
	58	0	0	0	0	1.01043201211	100	0	0	0	0	0	0	0	0	0	0	0	0	0	0	;
	59	0	0	173.165	-173.165	1.01390405025	100	0	346.33	180.0916	0	0	0	0	0	0	0	57.72166667	173.165	173.165	0	;
	59	0	0	0	0	1.01390405025	100	0	0	0	0	0	0	0	0	0	0	0	0	0	0	;
	59	0	0	0	0	1.01390405025	100	0	0	0	0	0	0	0	0	0	0	0	0	0	0	;
	59	455.383930173	7.39042399876	250	-250	1.01390405025	100	1	500	200	0	0	0	0	0	0	0	55	165	250	0	;
	59	455.383930173	7.39042399876	250	-250	1.01390405025	100	1	500	200	0	0	0	0	0	0	0	55	165	250	0	;
	59	455.383930173	7.39042399876	250	-250	1.01390405025	100	1	500	200	0	0	0	0	0	0	0	55	165	250	0	;
	59	455.383930173	7.39042399876	250	-250	1.01390405025	100	1	500	200	0	0	0	0	0	0	0	55	165	250	0	;
	59	455.383930173	7.39042399876	250	-250	1.01390405025	100	1	500	200	0	0	0	0	0	0	0	55	165	250	0	;
	59	451.850696877	7.39042399876	250	-250	1.01390405025	100	1	500	200	0	0	0	0	0	0	0	55	165	250	0	;
	59	1003.78548314	55.8103889862	525	-525	1.01390405025	100	1	1050	420	0	0	0	0	0	0	0	115.5	346.5	525	0	;
	59	1003.78548314	55.8103889862	525	-525	1.01390405025	100	1	1050	420	0	0	0	0	0	0	0	115.5	346.5	525	0	;
	62	0	0	0	0	1.0027265146	100	0	0	0	0	0	0	0	0	0	0	0	0	0	0	;
	64	0	0	265.2205	-265.2205	0.999669923037	100	0	530.441	275.82932	0	0	0	0	0	0	0	88.40683333	265.2205	265.2205	0	;
	70	0	0	215.6	-215.6	0.99984842884	100	0	431.2	224.224	0	0	0	0	0	0	0	71.86666667	215.6	215.6	0	;
	71	994.651704595	-25.9392746711	520	-520	1.00683009697	100	1	1040	416	0	0	0	0	0	0	0	114.4	343.2	520	0	;
	73	168.415627755	-4.73085963833	100	-100	1.00871333883	100	1	200	80	0	0	0	0	0	0	0	22	66	100	0	;
	73	173.026832162	-4.73085963833	100	-100	1.00871333883	100	1	200	80	0	0	0	0	0	0	0	22	66	100	0	;
	73	553.190162182	-19.6710835401	297.5	-297.5	1.00871333883	100	1	595	238	0	0	0	0	0	0	0	65.45	196.35	297.5	0	;
	73	553.190162182	-19.6710835401	297.5	-297.5	1.00871333883	100	1	595	238	0	0	0	0	0	0	0	65.45	196.35	297.5	0	;
	79	0	0	424	-424	0.998362632769	100	0	848	440.96	0	0	0	0	0	0	0	141.3333333	424	424	0	;
	75	950.422499937	-51.4723664731	511	-511	1.01252922885	100	1	1022	408.8	0	0	0	0	0	0	0	112.42	337.26	511	0	;
	75	950.422499937	-51.4723664731	511	-511	1.01252922885	100	1	1022	408.8	0	0	0	0	0	0	0	112.42	337.26	511	0	;
	82	931.324582874	26.2467864736	475	-475	1.02464671948	100	1	950	902.5	0	0	0	0	0	0	0	28.5	85.5	475	0	;
	82	931.324582874	26.2467864736	475	-475	1.02464671948	100	1	950	902.5	0	0	0	0	0	0	0	28.5	85.5	475	0	;
	82	980.561516821	31.4822104515	500	-500	1.02464671948	100	1	1000	950	0	0	0	0	0	0	0	30	90	500	0	;
	82	980.561516821	31.4822104515	500	-500	1.02464671948	100	1	1000	950	0	0	0	0	0	0	0	30	90	500	0	;
	82	980.561516821	31.4822104515	500	-500	1.02464671948	100	1	1000	950	0	0	0	0	0	0	0	30	90	500	0	;
	82	980.561516821	31.4822104515	500	-500	1.02464671948	100	1	1000	950	0	0	0	0	0	0	0	30	90	500	0	;
	82	1375.0876252	85.3244053099	700	-700	1.02464671948	100	1	1400	1330	0	0	0	0	0	0	0	42	126	700	0	;
	87	0	0	180.8	-180.8	1.00589001725	100	0	361.6	188.032	0	0	0	0	0	0	0	60.26666667	180.8	180.8	0	;
	98	0	0	44	-44	0.995069078857	100	0	88	45.76	0	0	0	0	0	0	0	14.66666667	44	44	0	;
	99	0	0	24.15	-24.15	0.992734667935	100	0	48.3	25.116	0	0	0	0	0	0	0	8.05	24.15	24.15	0	;
	100	0	0	225	-225	1.01246307632	100	0	450	234	0	0	0	0	0	0	0	75	225	225	0	;
	100	0	0	225	-225	1.01246307632	100	0	450	234	0	0	0	0	0	0	0	75	225	225	0	;
	100	0	0	225	-225	1.01246307632	100	0	450	234	0	0	0	0	0	0	0	75	225	225	0	;
	100	505.551871996	21.1749065212	275	-275	1.01246307632	100	1	550	220	0	0	0	0	0	0	0	60.5	181.5	275	0	;
	100	455.805840222	16.9080449428	250	-250	1.01246307632	100	1	500	200	0	0	0	0	0	0	0	55	165	250	0	;
	100	0	0	0	0	1.01246307632	100	0	0	0	0	0	0	0	0	0	0	0	0	0	0	;
	100	0	0	0	0	1.01246307632	100	0	0	0	0	0	0	0	0	0	0	0	0	0	0	;
	100	455.805840222	16.9080449428	250	-250	1.01246307632	100	1	500	200	0	0	0	0	0	0	0	55	165	250	0	;
	100	455.805840222	16.9080449428	250	-250	1.01246307632	100	1	500	200	0	0	0	0	0	0	0	55	165	250	0	;
	100	973.407333337	85.8610371166	509.515	-509.515	1.01246307632	100	1	1019.03	407.612	0	0	0	0	0	0	0	112.0933	336.2799	509.515	0	;
	100	973.407333337	85.8610371166	509.515	-509.515	1.01246307632	100	1	1019.03	407.612	0	0	0	0	0	0	0	112.0933	336.2799	509.515	0	;
	106	921.208417782	44.9754550527	509	-509	1.00277320006	100	1	1018	407.2	0	0	0	0	0	0	0	111.98	335.94	509	0	;
	108	0	0	359.2	-359.2	1.00070755664	100	0	718.4	373.568	0	0	0	0	0	0	0	119.7333333	359.2	359.2	0	;
	124	930.639289027	73.8094382424	475	-475	1.02000038548	100	1	950	902.5	0	0	0	0	0	0	0	28.5	85.5	475	0	;
	124	930.639289027	73.8094382424	475	-475	1.02000038548	100	1	950	902.5	0	0	0	0	0	0	0	28.5	85.5	475	0	;
	124	979.810787837	81.6492241959	500	-500	1.02000038548	100	1	1000	950	0	0	0	0	0	0	0	30	90	500	0	;
	124	979.810787837	81.6492241959	500	-500	1.02000038548	100	1	1000	950	0	0	0	0	0	0	0	30	90	500	0	;
	124	979.810787837	81.6492241959	500	-500	1.02000038548	100	1	1000	950	0	0	0	0	0	0	0	30	90	500	0	;
	124	979.810787837	81.6492241959	500	-500	1.02000038548	100	1	1000	950	0	0	0	0	0	0	0	30	90	500	0	;
	128	0	0	57.623	-57.623	0.993629828283	100	0	115.246	59.92792	0	0	0	0	0	0	0	19.20766667	57.623	57.623	0	;
	134	0	0	262.75	-262.75	0.999699470825	100	0	525.5	273.26	0	0	0	0	0	0	0	87.58333333	262.75	262.75	0	;
	134	0	0	432.1	-432.1	0.999699470825	100	0	864.2	449.384	0	0	0	0	0	0	0	144.0333333	432.1	432.1	0	;
	134	0	0	247.3	-247.3	0.999699470825	100	0	494.6	257.192	0	0	0	0	0	0	0	82.43333333	247.3	247.3	0	;
	134	0	0	247.3	-247.3	0.999699470825	100	0	494.6	257.192	0	0	0	0	0	0	0	82.43333333	247.3	247.3	0	;
	137	302.597274655	23.4040143978	170	-170	0.996400336725	100	1	340	136	0	0	0	0	0	0	0	37.4	112.2	170	0	;
	137	292.129400111	21.8861825803	164.3	-164.3	0.996400336725	100	1	328.6	131.44	0	0	0	0	0	0	0	36.146	108.438	164.3	0	;
	156	0	0	185.35	-185.35	0.992715893846	100	0	370.7	192.764	0	0	0	0	0	0	0	61.78333333	185.35	185.35	0	;
	160	0	0	0	0	0.993063797552	100	0	0	0	0	0	0	0	0	0	0	0	0	0	0	;
	166	684.994761374	50.5380207793	350	-350	1.00769853085	100	1	700	665	0	0	0	0	0	0	0	21	63	350	0	;
	166	684.994761374	50.5380207793	350	-350	1.00769853085	100	1	700	665	0	0	0	0	0	0	0	21	63	350	0	;
	166	684.994761374	50.5380207793	350	-350	1.00769853085	100	1	700	665	0	0	0	0	0	0	0	21	63	350	0	;
	166	979.715691095	102.396156728	500	-500	1.00769853085	100	1	1000	950	0	0	0	0	0	0	0	30	90	500	0	;
	166	979.715691095	102.396156728	500	-500	1.00769853085	100	1	1000	950	0	0	0	0	0	0	0	30	90	500	0	;
	167	0	0	150	-150	1.00726427452	100	0	300	156	0	0	0	0	0	0	0	50	150	150	0	;
	167	0	0	225	-225	1.00726427452	100	0	450	234	0	0	0	0	0	0	0	75	225	225	0	;
	167	0	0	225	-225	1.00726427452	100	0	450	234	0	0	0	0	0	0	0	75	225	225	0	;
	167	0	0	435.95	-435.95	1.00726427452	100	0	871.9	453.388	0	0	0	0	0	0	0	145.3166667	435.95	435.95	0	;
	167	0	0	221.4	-221.4	1.00726427452	100	0	442.8	230.256	0	0	0	0	0	0	0	73.8	221.4	221.4	0	;
	172	0	0	22.918	-22.918	1.00125080214	100	0	45.836	23.83472	0	0	0	0	0	0	0	7.639333333	22.918	22.918	0	;
	175	635.69224109	30.8396815554	325	-325	1.01608441697	100	1	650	617.5	0	0	0	0	0	0	0	19.5	58.5	325	0	;
	175	930.051296106	67.1312627805	475	-475	1.01608441697	100	1	950	902.5	0	0	0	0	0	0	0	28.5	85.5	475	0	;
	175	930.051296106	67.1312627805	475	-475	1.01608441697	100	1	950	902.5	0	0	0	0	0	0	0	28.5	85.5	475	0	;
	175	979.166088915	74.5140755484	500	-500	1.01608441697	100	1	1000	950	0	0	0	0	0	0	0	30	90	500	0	;
	175	979.166088915	74.5140755484	500	-500	1.01608441697	100	1	1000	950	0	0	0	0	0	0	0	30	90	500	0	;
	175	1372.60908915	146.792897939	700	-700	1.01608441697	100	1	1400	1330	0	0	0	0	0	0	0	42	126	700	0	;
	175	1372.60908915	146.792897939	700	-700	1.01608441697	100	1	1400	1330	0	0	0	0	0	0	0	42	126	700	0	;
	180	0	0	13.15	-13.15	0.995616575323	100	0	26.3	13.676	0	0	0	0	0	0	0	4.383333333	13.15	13.15	0	;
	186	0	0	225	-225	1.00853158323	100	0	450	234	0	0	0	0	0	0	0	75	225	225	0	;
	186	398.399619646	16.0594083633	225	-225	1.00853158323	100	1	450	234	0	0	0	0	0	0	0	75	225	225	0	;
	186	0	0	225	-225	1.00853158323	100	0	450	234	0	0	0	0	0	0	0	75	225	225	0	;
	186	398.399619646	16.0594083633	225	-225	1.00853158323	100	1	450	234	0	0	0	0	0	0	0	75	225	225	0	;
	190	0	0	0	0	1	100	0	0	0	0	0	0	0	0	0	0	0	0	0	0	;
	190	0	0	0	0	1	100	0	0	0	0	0	0	0	0	0	0	0	0	0	0	;
	190	432.258544492	-13.2078169169	250	-250	1	100	1	500	200	0	0	0	0	0	0	0	55	165	250	0	;
	190	432.258544492	-13.2078169169	250	-250	1	100	1	500	200	0	0	0	0	0	0	0	55	165	250	0	;
	190	935.050699087	-39.7395290927	520	-520	1	100	1	1040	416	0	0	0	0	0	0	0	114.4	343.2	520	0	;
	190	935.050699087	-39.7395290927	520	-520	1	100	1	1040	416	0	0	0	0	0	0	0	114.4	343.2	520	0	;
	193	0	0	0	0	1.00736041484	100	0	0	0	0	0	0	0	0	0	0	0	0	0	0	;
	193	0	0	0	0	1.00736041484	100	0	0	0	0	0	0	0	0	0	0	0	0	0	0	;
	193	0	0	0	0	1.00736041484	100	0	0	0	0	0	0	0	0	0	0	0	0	0	0	;
	193	445.186266122	34.5482879683	250	-250	1.00736041484	100	1	500	200	0	0	0	0	0	0	0	55	165	250	0	;
	193	445.186266122	34.5482879683	250	-250	1.00736041484	100	1	500	200	0	0	0	0	0	0	0	55	165	250	0	;
	193	445.186266122	34.5482879683	250	-250	1.00736041484	100	1	500	200	0	0	0	0	0	0	0	55	165	250	0	;
	193	445.186266122	34.5482879683	250	-250	1.00736041484	100	1	500	200	0	0	0	0	0	0	0	55	165	250	0	;
	193	450.062544412	34.5482879683	250	-250	1.00736041484	100	1	500	200	0	0	0	0	0	0	0	55	165	250	0	;
	71	994.651704595	-25.9392746711	520	-520	1.00683009697	100	1	1040	416	0	0	0	0	0	0	0	114.4	343.2	520	0	;
	60	0	0	247.5	-247.5	1.00449087348	100	0	495	257.4	0	0	0	0	0	0	0	82.5	247.5	247.5	0	;
	42	987.219202437	129.503428612	512.7	-512.7	0.999543305609	100	1	1025.4	533.208	0	0	0	0	0	0	0	170.9	512.7	512.7	0	;
	11	0	0	0	0	1.00048206527	100	0	0	0	0	0	0	0	0	0	0	0	0	0	0	;
	172	0	0	59.486	-59.486	1.00125080214	100	0	118.972	61.86544	0	0	0	0	0	0	0	19.8286666667	59.486	59.486	0	;
	82	1375.0876252	85.3244053099	700	-700	1.02464671948	100	1	1400	1330	0	0	0	0	0	0	0	42	126	700	0	;
	75	978.254182847	-52.9782789071	525	-525	1.01252922885	100	1	1050	420	0	0	0	0	0	0	0	115.5	346.5	525	0	;
	64	0	0	298.5855	-298.5855	0.999669923037	100	0	597.171	310.52892	0	0	0	0	0	0	0	99.5285	298.5855	298.5855	0	;
	160	0	0	135	-135	0.993063797552	100	0	270	140.4	0	0	0	0	0	0	0	45	135	135	0	;
	192	954.652321325	25.7737092621	506	-506	1.00286595192	100	1	1012	526.24	0	0	0	0	0	0	0	168.666666667	506	506	0	;
	167	1094.03428318	124.622276178	552.3	-552.3	1.00726427452	100	1	1104.6	574.392	0	0	0	0	0	0	0	184.1	552.3	552.3	0	;
	75	0	0	525	-525	1.01252922885	100	0	1050	546	0	0	0	0	0	0	0	175	525	525	0	;
	62	0	0	135	-135	1.0027265146	100	0	270	140.4	0	0	0	0	0	0	0	45	135	135	0	;
	52	516.637560834	33.5307308854	280.5	-280.5	0.998686487048	100	1	561	291.72	0	0	0	0	0	0	0	93.5	280.5	280.5	0	;
	11	0	0	247.73	-247.73	1.00048206527	100	0	495.46	257.6392	0	0	0	0	0	0	0	82.5766666667	247.73	247.73	0	;
	24	0	0	142.5	-142.5	1.00271083264	100	0	285	148.2	0	0	0	0	0	0	0	47.5	142.5	142.5	0	;
	26	0	0	249	-249	1.00306472755	100	0	498	258.96	0	0	0	0	0	0	0	83	249	249	0	;
...
];

% branch data
%	fbus	tbus	r	x	b	rateA	rateB	rateC	ratio	angle	status	angmin	angmax	Pf	Qf	Pt	Qt
mpc.branch = [
	1	2	0.001953667	0.017794207	0.057753945	904	904	904	0	0	1	-30	30	193.73415101	-36.8961704302	-192.978234144	37.9894782404	;
	1	3	0.002346024	0.021367842	0.069352749	904	904	904	0	0	1	-30	30	155.850859591	-33.4535587354	-155.259886409	31.8782989809	;
	1	66	0.002789894	0.025410654	0.082474341	904	904	904	0	0	1	-30	30	-413.95747596	63.9125043991	418.867743515	-27.4362135332	;
	2	3	0.000230027	0.002463512	0.207508013	2172	2172	2172	0	0	1	-30	30	-48.0338139853	-24.0434920242	48.0395147782	3.22612577371	;
	2	4	0.001097043	0.009991982	0.032430577	904	904	904	0	0	1	-30	30	85.3328604013	-13.5956474001	-85.2518684884	11.0708133774	;
	2	6	0.004587512	0.041783555	0.135615211	904	904	904	0	0	1	-30	30	77.8767920121	-8.13057770726	-77.600068269	-2.95406905843	;
	3	4	0.000157872	0.001690763	0.142417379	2172	2172	2172	0	0	1	-30	30	576.504688949	-49.3063050578	-575.980642916	40.5851342732	;
	3	7	0.001539844	0.014025061	0.04552058	904	904	904	0	0	1	-30	30	80.1716561569	-16.0515133865	-80.070434779	12.3878990874	;
	3	28	0.000668777	0.007162388	0.603306441	2172	2172	2172	0	0	1	-30	30	-906.287980566	-5.42981414862	911.749166258	2.80335987881	;
	4	7	0.001330617	0.012119404	0.039335464	904	904	904	0	0	1	-30	30	12.5012473683	-10.8513146199	-12.4981400336	6.91771886031	;
	4	8	0.000413018	0.004423289	0.372585094	2172	2172	2172	0	0	1	-30	30	501.450670487	5.23158012469	-500.41626419	-31.5390727551	;
	5	16	0.00309813	0.028218105	0.091586372	904	904	904	0	0	1	-30	30	696.210301762	4.87566432447	-681.499069508	119.812140768	;
	5	20	0.003233724	0.029453105	0.095594761	904	904	904	0	0	1	-30	30	640.259622838	7.24797517803	-627.271159362	101.355919922	;
	5	66	0.002753227	0.025076687	0.081390398	904	904	904	0	0	1	-30	30	140.727909312	24.8669202931	-140.171137123	-28.0199679278	;
	5	70	0.001710666	0.015580931	0.050570403	904	904	904	0	0	1	-30	30	202.769727669	46.787430936	-202.039986777	-45.2501701802	;
	6	8	0.001796592	0.016363559	0.053110546	904	904	904	0	0	1	-30	30	-11.3352660293	-0.81524102232	11.3376337055	-4.47756166893	;
	6	11	0.001545809	0.014079394	0.045696926	904	904	904	0	0	1	-30	30	9.41845749814	-4.18237899626	-9.41703171597	-0.3781755631	;
	7	9	0.000740338	0.006743076	0.021885732	904	904	904	0	0	1	-30	30	143.519842258	-19.305448035	-143.3661427	18.4985538495	;
	7	14	0.000255269	0.002733843	0.230278712	2172	2172	2172	0	0	1	-30	30	390.868485059	-41.4525625297	-390.479374859	22.4078466715	;
	7	28	0.000583767	0.00625196	0.526618746	2172	2172	2172	0	0	1	-30	30	-1219.08798112	43.9204350183	1227.72267103	-4.8313661519	;
	8	10	0.000160584	0.000184873	0.901984702	1416	1416	1416	0	0	1	-30	30	-577.653886321	56.0676719257	578.205881204	-145.745152052	;
	8	11	0.000158062	0.001692798	0.142588761	2172	2172	2172	0	0	1	-30	30	188.780041802	-37.3428359347	-188.722299785	23.6917216885	;
	8	14	0.000269282	0.002883925	0.242920462	2172	2172	2172	0	0	1	-30	30	-346.791187636	-105.182588497	347.138159457	84.5045075658	;
	9	12	0.000119405	0.000137466	0.167672111	708	708	708	0	0	1	-30	30	200.450877093	-67.3437556123	-200.399200206	50.4954424589	;
	9	13	0.000176983	0.000203752	0.248523638	708	708	708	0	0	1	-30	30	-25.5861654509	-43.8185087178	25.5890319358	18.7544097526	;
	9	15	0.000297907	0.000342968	0.41832935	708	708	708	0	0	1	-30	30	-341.129174007	68.4225951301	341.496579392	-110.219672372	;
	10	14	0.00105221	0.00958364	0.031105236	904	904	904	0	0	1	-30	30	-91.1439572545	-21.6948064687	91.2354491292	19.4022339399	;
	10	24	0.000243464	0.000280289	1.367512381	1416	1416	1416	0	0	1	-30	30	-896.857096319	102.820971824	898.882801609	-237.748820512	;
	11	21	0.00015784	0.00169041	0.142387631	2172	2172	2172	0	0	1	-30	30	-243.986134787	-56.2171656903	244.083805355	42.993261835	;
	11	25	0.00110679	0.010080759	0.032718716	904	904	904	0	0	1	-30	30	-74.1402210264	-13.2783416257	74.2024984941	10.5639254565	;
	12	14	0.000665432	0.00606083	0.019671394	904	904	904	0	0	1	-30	30	10.2182276214	0.83802717819	-10.2175164034	-2.81452051601	;
	12	18	0.000258897	0.000298056	0.363549377	708	708	708	0	0	1	-30	30	-119.418906791	-82.2934764763	119.466033378	45.6755315046	;
	13	16	0.000661549	0.006025463	0.019556605	904	904	904	0	0	1	-30	30	-36.9217664638	-13.0301120634	36.9316577322	11.1455054992	;
	13	17	0.000189196	0.000217813	0.265674267	708	708	708	0	0	1	-30	30	-250.082720876	-24.6494971931	250.200256276	-2.02861590624	;
	13	22	0.000821755	0.00748463	0.024292563	904	904	904	0	0	1	-30	30	-31.0612045872	-5.80938502987	31.0692351905	3.43052799514	;
	14	18	9.94e-05	0.000114489	0.558582953	1416	1416	1416	0	0	1	-30	30	-690.514235683	-20.939272725	690.984535406	-34.854813213	;
	14	19	2.7e-05	6.2e-05	1.344867636	1906	1906	1906	0	0	1	-30	30	30.9477528298	-106.809631513	-30.9470880143	-28.7360720591	;
	14	23	0.000322118	0.000370841	0.45232683	708	708	708	0	0	1	-30	30	264.027215072	-31.5374358762	-263.804174393	-13.7574604236	;
	15	16	0.000110729	0.000127478	0.155489196	708	708	708	0	0	1	-30	30	-459.20938294	100.062977655	459.453344922	-115.491742269	;
	16	17	1.61e-05	3.7e-05	7.216516162	5718	5718	5718	0	0	1	-30	30	4157.11957468	-886.575539827	-4154.32331861	163.966061551	;
	16	20	0.000640865	0.005837068	0.018945138	904	904	904	0	0	1	-30	30	-128.921286432	39.6503404384	129.03713013	-40.5071554254	;
	16	22	3.29e-05	7.57e-05	1.640782241	1906	1906	1906	0	0	1	-30	30	20.5358911478	399.107464076	-20.4601211512	-564.707154616	;
	16	28	0.000193401	0.002071259	0.697869898	4344	4344	4344	0	0	1	-30	30	-4044.48759977	303.455655866	4076.00830828	-36.7161422023	;
	17	18	8.5e-06	1.95e-05	1.693948976	3812	3812	3812	0	0	1	-30	30	3412.34903542	-211.114871332	-3411.36752099	42.3637771404	;
	18	19	3.3e-05	3.8e-05	0.742	2832	2832	2832	0	0	1	-30	30	2105.63828155	-120.3115954	-2104.18628738	47.1481438375	;
	18	30	0.000754369	0.006870878	0.022300533	904	904	904	0	0	1	-30	30	-18.1541915401	15.7840387428	18.1587922385	-17.9904822586	;
	19	23	4.24e-05	4.88e-05	0.952412124	2832	2832	2832	0	0	1	-30	30	1987.54659328	-66.0957474194	-1985.88464092	-27.9058229808	;
	20	22	0.000644357	0.005868869	0.019048354	904	904	904	0	0	1	-30	30	126.569059062	-33.7997349797	-126.459725462	32.8739158391	;
	21	25	0.000588113	0.0053566	0.017385701	904	904	904	0	0	1	-30	30	-62.461393348	-8.82601736209	62.4846309052	7.29177606783	;
	21	34	9.49e-05	0.001016882	0.085654572	2172	2172	2172	0	0	1	-30	30	-564.354802599	-110.386352766	564.66667238	105.119473178	;
	22	29	0.000157753	0.000181614	0.886083495	1416	1416	1416	0	0	1	-30	30	680.626094309	100.243376908	-679.869674839	-188.745419819	;
	22	36	0.000114952	0.001231098	0.103698609	2172	2172	2172	0	0	1	-30	30	51.6340979456	95.0608016717	-51.6196138757	-105.365456216	;
	22	38	0.000222736	0.002385427	0.200930653	2172	2172	2172	0	0	1	-30	30	-713.827048781	174.096355234	715.025664025	-181.499602318	;
	22	46	0.000425686	0.004558955	0.384012537	2172	2172	2172	0	0	1	-30	30	-347.236756218	83.8699368805	347.789899711	-116.611043112	;
	23	24	5.52e-05	0.000503	0.0147	2712	2712	2712	0	0	1	-30	30	910.099202603	-18.4017650228	-909.644653648	21.0651869814	;
	23	32	2.02e-05	4.64e-05	1.00675716	1906	1906	1906	0	0	1	-30	30	693.747660257	42.553450695	-693.649298989	-143.612484641	;
	23	33	0.000169968	0.000195677	0.238673524	708	708	708	0	0	1	-30	30	271.816497808	-27.111855234	-271.691311098	3.25012760472	;
	24	26	0.000118	0.000136	0.664	1416	1416	1416	0	0	1	-30	30	-534.110743434	169.458038886	534.49383645	-235.800560957	;
	25	26	0.00041452	0.003775492	0.012253963	904	904	904	0	0	1	-30	30	-28.6433577472	-12.3976997303	28.6473142312	11.2015084098	;
	25	34	0.000619848	0.00564564	0.018323828	904	904	904	0	0	1	-30	30	-42.5174474293	-10.9422127662	42.5292161703	9.20631475733	;
	26	32	0.000607908	0.005536893	0.01797087	904	904	904	0	0	1	-30	30	-58.9596069954	8.11097338816	58.9811014085	-9.72307589896	;
	26	34	4.5e-05	0.000103577	2.245327702	1906	1906	1906	0	0	1	-30	30	-1155.09646115	130.866662822	1155.71979829	-355.403268124	;
	27	34	9.33e-05	0.000999417	0.336734	4344	4344	4344	0	0	1	-30	30	170.822480619	-3.82352170107	-170.795291619	-29.7931450417	;
	28	38	0.001685665	0.015353221	0.049831335	904	904	904	0	0	1	-30	30	435.125007084	12.0379018665	-431.990612704	11.4674861392	;
	28	41	0.002015591	0.018358223	0.059584548	904	904	904	0	0	1	-30	30	88.9019112981	52.565201305	-88.6845057622	-56.5885305164	;
	28	50	9.99e-05	0.00321	1.63	7290	7290	7290	0	0	1	-30	30	1179.51443085	111.256250906	-1178.11396984	-231.32311692	;
	28	80	0.000122152	0.003924627	7.991861101	14580	14580	14580	0	0	1	-30	30	-6695.2400116	525.19549439	6749.99761674	414.541357903	;
	29	30	8.04e-06	9.26e-06	0.04515506	1416	1416	1416	0	0	1	-30	30	639.15105958	50.6484321151	-639.118229277	-55.1588012764	;
	29	36	3.7e-05	8.52e-05	1.846241882	1906	1906	1906	0	0	1	-30	30	-498.49317333	73.7639101642	498.594664478	-259.508611324	;
	30	31	0.00033011	0.003006676	0.009758648	904	904	904	0	0	1	-30	30	144.673578642	25.5206563537	-144.602760005	-25.8572846304	;
	31	33	0.000235829	0.000271499	0.331156608	708	708	708	0	0	1	-30	30	-174.653165692	7.99885958213	174.726191665	-41.196868309	;
	31	36	0.00107165	0.0097607	0.031679912	904	904	904	0	0	1	-30	30	-50.1274378194	-9.77805013995	50.1549552567	6.84159132122	;
	32	33	6.05e-05	6.97e-05	0.1912274	1062	1062	1062	0	0	1	-30	30	385.055143719	13.3119759106	-384.965649005	-32.4390718577	;
	32	37	0.000239942	0.002569698	0.216452349	2172	2172	2172	0	0	1	-30	30	-107.64862388	14.3182901685	107.677782053	-35.7699320447	;
	32	44	0.000338016	0.003620039	0.304925228	2172	2172	2172	0	0	1	-30	30	-317.017301337	83.1499307276	317.387619765	-109.781577457	;
	34	37	6.47e-05	0.000692975	0.058371101	2172	2172	2172	0	0	1	-30	30	-681.898289941	176.269635854	682.217781432	-178.719163999	;
	35	37	0.000950447	0.008656772	0.028096937	904	904	904	0	0	1	-30	30	-50.3938108232	-14.213348073	50.4194576157	11.6274144008	;
	35	40	0.001104834	0.01006295	0.032660912	904	904	904	0	0	1	-30	30	-260.31545923	8.79223830283	261.063918317	-5.25459386895	;
	36	38	0.000952048	0.00867136	0.028144286	904	904	904	0	0	1	-30	30	-202.464890795	38.3200973734	202.867220079	-37.4870086915	;
	36	43	0.001604892	0.014617531	0.047443535	904	904	904	0	0	1	-30	30	110.4048066	36.9050855575	-110.186016094	-39.6567144133	;
	36	44	0.000327256	0.003504805	0.295218756	2172	2172	2172	0	0	1	-30	30	-212.366303954	96.5817475389	212.553165987	-124.226433146	;
	36	46	0.000315296	0.00337672	0.284429868	2172	2172	2172	0	0	1	-30	30	-486.956172573	88.6414063682	487.731531016	-108.939186234	;
	37	40	0.000119	0.00127	0.429	4344	4344	4344	0	0	1	-30	30	-1727.74547453	114.118661667	1731.30152732	-119.310911553	;
	38	42	0.001675214	0.015258027	0.049522368	904	904	904	0	0	1	-30	30	-119.26081501	30.0523293603	119.515632984	-32.6929410008	;
	38	45	0.001624604	0.014797065	0.048026242	904	904	904	0	0	1	-30	30	-10.4469262749	5.94236864927	10.4498198859	-10.7359174631	;
	38	46	0.001525585	0.013895192	0.045099066	904	904	904	0	0	1	-30	30	8.57856498468	-0.015688791369	-8.57737063083	-4.5023707734	;
	38	84	0.000977268	0.010466224	0.881597169	2172	2172	2172	0	0	1	-30	30	-724.192532365	135.598224275	729.608832973	-165.396263662	;
	39	44	0.000549539	0.00500526	0.064981493	1808	1808	1808	0	0	1	-30	30	-616.761385685	-53.9085910305	618.8910799	66.8429646303	;
	40	44	0.000186834	0.002000932	0.16854368	2172	2172	2172	0	0	1	-30	30	660.06142124	64.8463086237	-659.242493357	-72.9915352569	;
	40	47	0.000177428	0.001900194	0.160058219	2172	2172	2172	0	0	1	-30	30	903.809226942	298.296639896	-902.20338859	-297.088304017	;
	41	42	0.001299581	0.011836722	0.038417974	904	904	904	0	0	1	-30	30	265.517440777	-40.8638041229	-264.577522753	45.5928144606	;
	41	52	0.003101751	0.028251087	0.091693421	904	904	904	0	0	1	-30	30	-16.4498431897	-5.61068296437	16.4583063931	-3.45001513156	;
	41	77	0.002217352	0.020195883	0.065548969	904	904	904	0	0	1	-30	30	-350.305710904	84.0707983691	353.208198269	-64.1146201971	;
	42	46	0.00172419	0.015704108	0.050970195	904	904	904	0	0	1	-30	30	123.651617803	-29.7805276578	-123.374952808	27.1961038094	;
	42	84	0.004178797	0.038060939	0.123532864	904	904	904	0	0	1	-30	30	-150.470349093	30.4739573212	151.473515319	-33.6061335677	;
	43	44	0.000449352	0.004092749	0.013283673	904	904	904	0	0	1	-30	30	-570.668495241	-33.6266500795	572.147635568	45.7746672747	;
	44	48	0.001280818	0.011665829	0.037863315	904	904	904	0	0	1	-30	30	-142.69263272	13.2569381004	142.956092757	-14.6482949837	;
	44	57	0.000681396	0.007297531	0.614689901	2172	2172	2172	0	0	1	-30	30	-1136.51306531	132.446735316	1145.48670535	-97.8353270911	;
	45	46	0.000111099	0.001189836	0.100222927	2172	2172	2172	0	0	1	-30	30	231.594021645	-78.5596908222	-231.528590881	69.2065180878	;
	45	50	0.00040114	0.004296079	0.361869864	2172	2172	2172	0	0	1	-30	30	-627.101475292	8.75489528642	628.677891149	-28.2131154099	;
	46	48	0.001260894	0.011484355	0.037274311	904	904	904	0	0	1	-30	30	-67.1801662643	16.00722319	67.2408734091	-19.1914304655	;
	46	50	0.000334595	0.003583402	0.301839233	2172	2172	2172	0	0	1	-30	30	-829.070061005	43.8912970684	831.372888717	-49.5600315985	;
	47	49	0.001906713	0.017366547	0.056365905	904	904	904	0	0	1	-30	30	-169.495809702	12.1201726642	170.052431191	-12.6465056689	;
	47	60	0.000752607	0.008060181	0.67892992	2172	2172	2172	0	0	1	-30	30	-1473.67036773	86.4022503599	1490.26047083	23.3546377676	;
	48	49	0.001480551	0.013485018	0.043767781	904	904	904	0	0	1	-30	30	-66.3312390385	33.380036276	66.4149950433	-36.9837425394	;
	48	51	0.001270961	0.011576049	0.037571917	904	904	904	0	0	1	-30	30	-91.9543141731	19.4354699443	92.0673951767	-22.1634239622	;
	49	51	0.000899122	0.008189302	0.0598043	1356	1356	1356	0	0	1	-30	30	-20.4094579594	-31.50186306	20.4205895143	25.6441830655	;
	49	53	0.002230934	0.020319589	0.065950477	904	904	904	0	0	1	-30	30	-604.133084102	42.3248548597	612.372095582	26.0834496552	;
	50	51	0.000183433	0.001964511	0.165475847	2172	2172	2172	0	0	1	-30	30	569.88102447	120.838257839	-569.258424319	-130.758837501	;
	50	54	0.000298513	0.003196975	0.269289514	2172	2172	2172	0	0	1	-30	30	-447.112551169	81.9442625626	447.732813953	-102.348203923	;
	50	62	4.12e-05	0.001322961	2.693994224	14580	14580	14580	0	0	1	-30	30	-2267.44897789	-11.1126666534	2269.56093802	-192.011981023	;
	51	55	0.001436718	0.01308578	0.042471992	904	904	904	0	0	1	-30	30	-459.993319935	53.8867095221	463.081631889	-30.0056364572	;
	51	57	0.00189377	0.017248658	0.055983277	904	904	904	0	0	1	-30	30	-321.859071956	39.3841017218	323.856677105	-26.7844459065	;
	52	54	0.001933006	0.017606027	0.057143176	904	904	904	0	0	1	-30	30	67.0451117426	-25.0687432019	-66.9484253695	20.2346608326	;
	52	56	0.001462649	0.013321963	0.04323856	904	904	904	0	0	1	-30	30	89.9558517097	-6.25182759687	-89.8369358136	3.02543589124	;
	52	84	0.001585688	0.014442614	0.046875812	904	904	904	0	0	1	-30	30	-149.339773874	50.8226609945	149.739280491	-51.8355444235	;
	53	55	0.000288514	0.003089893	1.041078801	4344	4344	4344	0	0	1	-30	30	2002.54745948	89.112473107	-1991.12213403	-71.847560235	;
	53	58	0.000270064	0.002892303	0.243626177	2172	2172	2172	0	0	1	-30	30	-958.159681278	34.7014651472	960.601681103	-33.3828152755	;
	53	63	2.79e-05	0.000896312	1.825192122	14580	14580	14580	0	0	1	-30	30	1658.86086221	18.0735153597	-1658.10312657	-179.245113609	;
	54	55	0.002132132	0.019419691	0.063029714	904	904	904	0	0	1	-30	30	-180.590193253	23.8657468486	181.299155532	-23.7240187198	;
	54	61	0.001817125	0.016550571	0.053717525	904	904	904	0	0	1	-30	30	-48.1349749076	5.01773493862	48.1780387134	-10.0101215816	;
	54	62	0.000345552	0.003700749	0.311723639	2172	2172	2172	0	0	1	-30	30	-416.375185817	-9.96214845872	416.972723151	-14.9389650627	;
	55	57	0.000154208	0.001651521	0.139111914	2172	2172	2172	0	0	1	-30	30	283.409758165	11.7203652528	-283.285511909	-24.3079022164	;
	55	64	0.003142511	0.028622331	0.092898352	904	904	904	0	0	1	-30	30	-41.0332395393	3.42081726634	41.088130263	-12.2133802028	;
	56	61	0.001408725	0.01283082	0.041644479	904	904	904	0	0	1	-30	30	-63.5986467987	-18.3689954339	63.6596123998	14.7639797205	;
	57	60	0.001430752	0.01303144	0.042295623	904	904	904	0	0	1	-30	30	-248.514894966	-6.18552655495	249.398965039	9.98962203902	;
	57	97	0.000552148	0.005913329	0.498094995	2172	2172	2172	0	0	1	-30	30	-1304.83403674	14.1799123259	1314.24548303	36.422263987	;
	58	59	6.17e-05	0.00066	0.501	6516	6516	6516	0	0	1	-30	30	-4605.33548901	-58.3589032922	4618.15334901	144.143728111	;
	58	63	0.00017	0.00182	0.613	4344	4344	4344	0	0	1	-30	30	2343.05304938	-38.426445631	-2333.91185389	73.886516058	;
	60	63	0.000254942	0.002730347	0.229984176	2172	2172	2172	0	0	1	-30	30	-699.962456643	-50.5286538198	701.204223124	40.552431407	;
	60	100	0.000568608	0.006089613	0.512943851	2172	2172	2172	0	0	1	-30	30	-1211.82783062	-0.0285063897707	1220.10725959	36.5300604049	;
	61	62	0.000190755	0.001737417	0.022556263	1808	1808	1808	0	0	1	-30	30	-426.032828327	-51.577151391	426.383200891	52.5043126104	;
	62	63	6.31e-05	0.00202596	4.125535352	14580	14580	14580	0	0	1	-30	30	-3316.59846131	-230.154273994	3323.5019813	35.0194889907	;
	62	64	0.00024797	0.002655684	0.223695124	2172	2172	2172	0	0	1	-30	30	-1192.63021744	235.10456056	1196.28777782	-218.356394629	;
	63	97	0.001705746	0.015536123	0.050424972	904	904	904	0	0	1	-30	30	-167.070171529	16.3496076334	167.545229973	-17.1424462456	;
	64	96	0.001229987	0.011202852	0.036360649	904	904	904	0	0	1	-30	30	-207.011012379	5.87114900288	207.539181186	-4.70131457182	;
	64	98	0.00145865	0.013285543	0.043120356	904	904	904	0	0	1	-30	30	13.6639773015	30.9709458912	-13.6452357818	-35.0896487351	;
	64	99	0.00122871	0.011191219	0.036322892	904	904	904	0	0	1	-30	30	102.983454502	49.3628424218	-102.820853254	-51.4866498228	;
	64	102	0.00020466	0.002191839	0.73849704	4344	4344	4344	0	0	1	-30	30	-1636.64482445	95.4016131873	1642.16632787	-110.15063588	;
	65	68	0.001222283	0.011132689	0.036132921	904	904	904	0	0	1	-30	30	-303.384112328	1.54856259487	304.51043735	5.08646919801	;
	65	69	0.003164497	0.028822584	0.093548306	904	904	904	0	0	1	-30	30	219.7211549	-13.1928172177	-218.189523591	17.8210472449	;
	66	67	0.001903714	0.01733923	0.056277244	904	904	904	0	0	1	-30	30	-287.133318191	52.0733628655	288.76027314	-42.8668640267	;
	66	70	0.001986687	0.018094956	0.058730073	904	904	904	0	0	1	-30	30	-20.1277501998	0.0191207332271	20.1359727134	-5.81620838805	;
	67	69	0.001285688	0.011710181	0.038007266	904	904	904	0	0	1	-30	30	-312.927307098	40.2018032692	314.216227589	-32.2410212712	;
	68	69	0.00309092	0.02815243	0.091373212	904	904	904	0	0	1	-30	30	346.414365383	-3.006342935	-342.730081746	27.422151573	;
	68	71	0.000542799	0.0058132	0.489660838	2172	2172	2172	0	0	1	-30	30	-687.118643671	-6.28782131665	689.665924515	-15.8993594476	;
	69	72	0.003845431	0.035024597	0.113677932	904	904	904	0	0	1	-30	30	207.332143514	-17.3804881052	-205.663874406	21.2886300205	;
	70	72	0.001924592	0.017529395	0.056894456	904	904	904	0	0	1	-30	30	-59.4632564673	26.9178753424	59.5483807958	-31.8074949358	;
	71	73	0.000429713	0.004602092	0.387646086	2172	2172	2172	0	0	1	-30	30	-920.242616028	44.5234807824	923.849876726	-45.26036505	;
	71	78	0.005029715	0.045811184	0.148687523	904	904	904	0	0	1	-30	30	318.962864386	-21.9995928167	-313.904579294	52.9796606487	;
	72	74	0.001850173	0.016851572	0.054694473	904	904	904	0	0	1	-30	30	51.0331838644	1.0106343526	-50.9843358567	-5.98132532916	;
	73	75	0.000154736	0.001657168	0.139587554	2172	2172	2172	0	0	1	-30	30	-2022.96692869	-17.3039084782	2029.1905685	69.6999956847	;
	73	76	0.003400257	0.030969904	0.100517777	904	904	904	0	0	1	-30	30	294.209749343	6.59121674404	-291.312557817	9.66443001576	;
	73	79	0.005323371	0.048485836	0.157368535	904	904	904	0	0	1	-30	30	277.270364602	1.53496438528	-273.24345333	19.2937513632	;
	73	80	0.003287737	0.029945065	0.097191498	904	904	904	0	0	1	-30	30	283.315065605	-47.4430106342	-280.663119457	61.6392334511	;
	73	81	0.001180594	0.012643784	1.065018618	2172	2172	2172	0	0	1	-30	30	1391.12281894	22.1995240672	-1368.60100695	111.775494254	;
	74	77	0.001050785	0.009570661	0.03106311	904	904	904	0	0	1	-30	30	253.925270835	11.4614973583	-253.238152194	-8.26290474337	;
	74	78	0.003080612	0.028058549	0.091068507	904	904	904	0	0	1	-30	30	-266.334578165	-14.2613351524	268.54790031	25.2915567155	;
	75	82	0.000690812	0.007398375	0.623184303	2172	2172	2172	0	0	1	-30	30	680.926936697	-243.84571285	-677.500127888	215.886739869	;
	76	79	0.00216439	0.019713499	0.063983315	904	904	904	0	0	1	-30	30	217.259112535	-17.7769574778	-216.231359283	20.7547309535	;
	77	81	0.002745828	0.0250093	0.081171682	904	904	904	0	0	1	-30	30	-434.525381143	38.9220321723	439.859583889	1.63658736697	;
	78	81	0.002422622	0.022065501	0.071617111	904	904	904	0	0	1	-30	30	-51.1780351475	48.1763124028	51.304478861	-54.2305343187	;
	79	80	0.003522928	0.032087205	0.104144155	904	904	904	0	0	1	-30	30	-158.745486967	-37.8926284446	159.673983463	35.7873102802	;
	79	81	0.001905365	0.017354266	0.056326045	904	904	904	0	0	1	-30	30	235.070100947	-21.9152286391	-234.006799194	25.987478723	;
	79	83	0.001772751	0.016146406	0.052405742	904	904	904	0	0	1	-30	30	265.553146736	4.99973273042	-264.297895511	1.23601877644	;
	80	82	3.61e-05	0.00115912	2.360357594	14580	14580	14580	0	0	1	-30	30	-6031.8825873	-515.880162826	6044.66852475	680.758821688	;
	81	84	0.00122041	0.011115623	0.144310127	1808	1808	1808	0	0	1	-30	30	1400.7977687	-10.5241882326	-1376.75664412	215.182120668	;
	81	86	0.000662535	0.007095536	0.59767536	2172	2172	2172	0	0	1	-30	30	-503.124182685	-96.0218257921	504.837041396	54.3119194144	;
	82	85	0.004627741	0.042149964	0.136804449	904	904	904	0	0	1	-30	30	289.572388564	23.9319599744	-285.833692792	-3.97925206776	;
	82	86	0.000927929	0.009937818	0.837088105	2172	2172	2172	0	0	1	-30	30	1280.95214496	98.9770620023	-1266.26946835	-28.0921619614	;
	82	94	0.005001876	0.045557628	0.147864567	904	904	904	0	0	1	-30	30	180.635474569	13.7185581166	-179.058991903	-14.65474362	;
	83	89	0.003668123	0.033409661	0.108436396	904	904	904	0	0	1	-30	30	19.8637164039	-25.6795731283	-19.8336841679	15.1871890748	;
	85	86	0.000987046	0.00899012	0.029178874	904	904	904	0	0	1	-30	30	55.6177991118	-19.0422466708	-55.5845989043	16.3904486621	;
	86	87	0.000301405	0.003227955	0.271898989	2172	2172	2172	0	0	1	-30	30	344.600651423	-18.1731249955	-344.247439058	-5.57792800718	;
	86	89	0.003643968	0.033189659	0.107722346	904	904	904	0	0	1	-30	30	135.458133113	4.63489965241	-134.794738274	-9.4317981128	;
	86	90	0.002477336	0.022563841	0.073234554	904	904	904	0	0	1	-30	30	58.9619628684	-5.45047670226	-58.8769099574	-1.18989006384	;
	86	92	0.000752885	0.008063158	0.67918067	2172	2172	2172	0	0	1	-30	30	52.5533987358	-46.1652272576	-52.5318564656	-22.4761136142	;
	87	90	0.002118269	0.019293421	0.062619884	904	904	904	0	0	1	-30	30	11.4024456329	-3.65798645924	-11.3997186814	-2.65224295026	;
	87	95	0.000515412	0.005519901	0.464955523	2172	2172	2172	0	0	1	-30	30	117.362136619	-11.0738056926	-117.291183994	-35.1521074737	;
	88	92	0.001978682	0.018022046	0.058493431	904	904	904	0	0	1	-30	30	287.068983468	-3.89269558494	-285.47501623	12.4514022672	;
	88	94	0.002833759	0.025810183	0.083771075	904	904	904	0	0	1	-30	30	11.5600634305	2.44250732881	-11.5551079931	-10.9498697817	;
	89	93	0.001483845	0.013515018	0.043865152	904	904	904	0	0	1	-30	30	262.024872713	1.21027293834	-261.004858429	3.71453340485	;
	90	92	0.002453205	0.022344057	0.072521209	904	904	904	0	0	1	-30	30	-40.6736567994	-5.91233792313	40.7139010539	-1.06799266002	;
	91	147	0.00275034	0.025050396	0.081305066	904	904	904	0	0	1	-30	30	-184.851432852	23.5238668981	185.815021385	-22.8478191593	;
	92	95	0.000460572	0.004932573	0.415483409	2172	2172	2172	0	0	1	-30	30	271.170922638	9.49901283211	-270.832878959	-47.9231063759	;
	93	102	0.004195747	0.038215319	0.124033929	904	904	904	0	0	1	-30	30	164.06308266	-31.9045767112	-162.895994482	30.1741609397	;
	93	149	0.002966654	0.027020609	0.087699707	904	904	904	0	0	1	-30	30	-6.83121995602	17.8125326953	6.84730947935	-26.3110093506	;
...